!-Generator IDFEditor 1.49
!-Option SortedOrder

!-NOTE: All comments with '!-' are ignored by the IDFEditor and are generated automatically.
!-      Use '!' comments if they need to be retained when using the IDFEditor.


!-   ===========  ALL OBJECTS IN CLASS: VERSION ===========

Version,
    8.7;                     !- Version Identifier


!-   ===========  ALL OBJECTS IN CLASS: SIMULATIONCONTROL ===========

SimulationControl,
    No,                      !- Do Zone Sizing Calculation
    No,                      !- Do System Sizing Calculation
    No,                      !- Do Plant Sizing Calculation
    No,                      !- Run Simulation for Sizing Periods
    Yes;                     !- Run Simulation for Weather File Run Periods


!-   ===========  ALL OBJECTS IN CLASS: BUILDING ===========

Building,
    Untitled,                !- Name
    305.0892,                !- North Axis {deg}
    City,                    !- Terrain
    0.04,                    !- Loads Convergence Tolerance Value
    0.4,                     !- Temperature Convergence Tolerance Value {deltaC}
    FullInteriorAndExterior, !- Solar Distribution
    25,                      !- Maximum Number of Warmup Days
    ;                        !- Minimum Number of Warmup Days


!-   ===========  ALL OBJECTS IN CLASS: TIMESTEP ===========

Timestep,
    4;                       !- Number of Timesteps per Hour


!-   ===========  ALL OBJECTS IN CLASS: SIZINGPERIOD:DESIGNDAY ===========

SizingPeriod:DesignDay,
    Sao Paulo Guarulhos Intl AP Ann Htg Wind 99% Condns WS=>MCDB,  !- Name
    7,                       !- Month
    21,                      !- Day of Month
    WinterDesignDay,         !- Day Type
    20.6,                    !- Maximum Dry-Bulb Temperature {C}
    0.0,                     !- Daily Dry-Bulb Temperature Range {deltaC}
    DefaultMultipliers,      !- Dry-Bulb Temperature Range Modifier Type
    ,                        !- Dry-Bulb Temperature Range Modifier Day Schedule Name
    Wetbulb,                 !- Humidity Condition Type
    20.6,                    !- Wetbulb or DewPoint at Maximum Dry-Bulb {C}
    ,                        !- Humidity Condition Day Schedule Name
    ,                        !- Humidity Ratio at Maximum Dry-Bulb {kgWater/kgDryAir}
    ,                        !- Enthalpy at Maximum Dry-Bulb {J/kg}
    ,                        !- Daily Wet-Bulb Temperature Range {deltaC}
    92639.,                  !- Barometric Pressure {Pa}
    7.2,                     !- Wind Speed {m/s}
    80,                      !- Wind Direction {deg}
    No,                      !- Rain Indicator
    No,                      !- Snow Indicator
    No,                      !- Daylight Saving Time Indicator
    ASHRAEClearSky,          !- Solar Model Indicator
    ,                        !- Beam Solar Day Schedule Name
    ,                        !- Diffuse Solar Day Schedule Name
    ,                        !- ASHRAE Clear Sky Optical Depth for Beam Irradiance (taub) {dimensionless}
    ,                        !- ASHRAE Clear Sky Optical Depth for Diffuse Irradiance (taud) {dimensionless}
    0.00;                    !- Sky Clearness

SizingPeriod:DesignDay,
    Sao Paulo Guarulhos Intl AP Ann Clg .4% Condns DB=>MWB,  !- Name
    2,                       !- Month
    21,                      !- Day of Month
    SummerDesignDay,         !- Day Type
    32.8,                    !- Maximum Dry-Bulb Temperature {C}
    9.4,                     !- Daily Dry-Bulb Temperature Range {deltaC}
    DefaultMultipliers,      !- Dry-Bulb Temperature Range Modifier Type
    ,                        !- Dry-Bulb Temperature Range Modifier Day Schedule Name
    Wetbulb,                 !- Humidity Condition Type
    21.5,                    !- Wetbulb or DewPoint at Maximum Dry-Bulb {C}
    ,                        !- Humidity Condition Day Schedule Name
    ,                        !- Humidity Ratio at Maximum Dry-Bulb {kgWater/kgDryAir}
    ,                        !- Enthalpy at Maximum Dry-Bulb {J/kg}
    ,                        !- Daily Wet-Bulb Temperature Range {deltaC}
    92639.,                  !- Barometric Pressure {Pa}
    4.4,                     !- Wind Speed {m/s}
    320,                     !- Wind Direction {deg}
    No,                      !- Rain Indicator
    No,                      !- Snow Indicator
    No,                      !- Daylight Saving Time Indicator
    ASHRAETau,               !- Solar Model Indicator
    ,                        !- Beam Solar Day Schedule Name
    ,                        !- Diffuse Solar Day Schedule Name
    0.394,                   !- ASHRAE Clear Sky Optical Depth for Beam Irradiance (taub) {dimensionless}
    2.444;                   !- ASHRAE Clear Sky Optical Depth for Diffuse Irradiance (taud) {dimensionless}


!-   ===========  ALL OBJECTS IN CLASS: SIZINGPERIOD:WEATHERFILECONDITIONTYPE ===========

SizingPeriod:WeatherFileConditionType,
    Tropical Hot,            !- Name
    TropicalHot,             !- Period Selection
    SummerDesignDay,         !- Day of Week for Start Day
    Yes,                     !- Use Weather File Daylight Saving Period
    Yes;                     !- Use Weather File Rain and Snow Indicators

SizingPeriod:WeatherFileConditionType,
    Tropical Cold,           !- Name
    TropicalCold,            !- Period Selection
    WinterDesignDay,         !- Day of Week for Start Day
    Yes,                     !- Use Weather File Daylight Saving Period
    Yes;                     !- Use Weather File Rain and Snow Indicators


!-   ===========  ALL OBJECTS IN CLASS: RUNPERIOD ===========

RunPeriod,
    ,                        !- Name
    1,                       !- Begin Month
    1,                       !- Begin Day of Month
    12,                      !- End Month
    31,                      !- End Day of Month
    USEWEATHERFILE,          !- Day of Week for Start Day
    No,                      !- Use Weather File Holidays and Special Days
    No,                      !- Use Weather File Daylight Saving Period
    No,                      !- Apply Weekend Holiday Rule
    No,                      !- Use Weather File Rain Indicators
    No,                      !- Use Weather File Snow Indicators
    1,                       !- Number of Times Runperiod to be Repeated
    Yes;                     !- Increment Day of Week on repeat


!-   ===========  ALL OBJECTS IN CLASS: RUNPERIODCONTROL:DAYLIGHTSAVINGTIME ===========

! Daylight Saving Period in US
RunPeriodControl:DaylightSavingTime,
    2nd Sunday in March,     !- Start Date
    1st Sunday in November;  !- End Date


!-   ===========  ALL OBJECTS IN CLASS: SITE:GROUNDTEMPERATURE:BUILDINGSURFACE ===========

Site:GroundTemperature:BuildingSurface,
    18,                      !- January Ground Temperature {C}
    18,                      !- February Ground Temperature {C}
    18,                      !- March Ground Temperature {C}
    18,                      !- April Ground Temperature {C}
    18,                      !- May Ground Temperature {C}
    18,                      !- June Ground Temperature {C}
    18,                      !- July Ground Temperature {C}
    18,                      !- August Ground Temperature {C}
    18,                      !- September Ground Temperature {C}
    18,                      !- October Ground Temperature {C}
    18,                      !- November Ground Temperature {C}
    18;                      !- December Ground Temperature {C}


!-   ===========  ALL OBJECTS IN CLASS: SITE:GROUNDTEMPERATURE:UNDISTURBED:FINITEDIFFERENCE ===========

Site:GroundTemperature:Undisturbed:FiniteDifference,
    groundtemp_finitediff,   !- Name
    1,                       !- Soil Thermal Conductivity {W/m-K}
    1250,                    !- Soil Density {kg/m3}
    1200,                    !- Soil Specific Heat {J/kg-K}
    30,                      !- Soil Moisture Content Volume Fraction {percent}
    50,                      !- Soil Moisture Content Volume Fraction at Saturation {percent}
    0.4;                     !- Evapotranspiration Ground Cover Parameter {dimensionless}


!-   ===========  ALL OBJECTS IN CLASS: SITE:GROUNDDOMAIN:SLAB ===========

Site:GroundDomain:Slab,
    grounddomain_slab,       !- Name
    10,                      !- Ground Domain Depth {m}
    1,                       !- Aspect Ratio
    5,                       !- Perimeter Offset {m}
    1,                       !- Soil Thermal Conductivity {W/m-K}
    1250,                    !- Soil Density {kg/m3}
    1200,                    !- Soil Specific Heat {J/kg-K}
    30,                      !- Soil Moisture Content Volume Fraction {percent}
    50,                      !- Soil Moisture Content Volume Fraction at Saturation {percent}
    Site:GroundTemperature:Undisturbed:FiniteDifference,  !- Undisturbed Ground Temperature Model Type
    groundtemp_finitediff,   !- Undisturbed Ground Temperature Model Name
    0.4,                     !- Evapotranspiration Ground Cover Parameter
    ground_coupled_oscm,     !- Slab Boundary Condition Model Name
    OnGrade,                 !- Slab Location
    ,                        !- Slab Material Name
    No,                      !- Horizontal Insulation
    ,                        !- Horizontal Insulation Material Name
    Full,                    !- Horizontal Insulation Extents
    ,                        !- Perimeter Insulation Width {m}
    No,                      !- Vertical Insulation
    ,                        !- Vertical Insulation Material Name
    ,                        !- Vertical Insulation Depth {m}
    Timestep,                !- Simulation Timestep
    1.6,                     !- Geometric Mesh Coefficient
    6;                       !- Mesh Density Parameter


!-   ===========  ALL OBJECTS IN CLASS: SCHEDULETYPELIMITS ===========

ScheduleTypeLimits,
    Any Number;              !- Name

ScheduleTypeLimits,
    Fraction,                !- Name
    0.0,                     !- Lower Limit Value
    1.0,                     !- Upper Limit Value
    CONTINUOUS;              !- Numeric Type

ScheduleTypeLimits,
    Temperature,             !- Name
    -60,                     !- Lower Limit Value
    200,                     !- Upper Limit Value
    CONTINUOUS;              !- Numeric Type

ScheduleTypeLimits,
    On/Off,                  !- Name
    0,                       !- Lower Limit Value
    1,                       !- Upper Limit Value
    DISCRETE;                !- Numeric Type

ScheduleTypeLimits,
    Control Type,            !- Name
    0,                       !- Lower Limit Value
    4,                       !- Upper Limit Value
    DISCRETE;                !- Numeric Type

ScheduleTypeLimits,
    Humidity,                !- Name
    10,                      !- Lower Limit Value
    90,                      !- Upper Limit Value
    CONTINUOUS;              !- Numeric Type

ScheduleTypeLimits,
    Number;                  !- Name

ScheduleTypeLimits,
    People_Activity,         !- Name
    0,                       !- Lower Limit Value
    1000,                    !- Upper Limit Value
    Continuous,              !- Numeric Type
    ActivityLevel;           !- Unit Type

ScheduleTypeLimits,
    On_Off,                  !- Name
    0,                       !- Lower Limit Value
    1,                       !- Upper Limit Value
    Discrete,                !- Numeric Type
    Control;                 !- Unit Type

ScheduleTypeLimits,
    atividade,               !- Name
    0,                       !- Lower Limit Value
    1000,                    !- Upper Limit Value
    Continuous,              !- Numeric Type
    ActivityLevel;           !- Unit Type


!-   ===========  ALL OBJECTS IN CLASS: SCHEDULE:COMPACT ===========

Schedule:Compact,
    Living Room Equipment Schedule,  !- Name
    Fraction,                !- Schedule Type Limits Name
    Through: 12/31,          !- Field 1
    For: AllDays,            !- Field 2
    Until: 14:00,            !- Field 3
    0,                       !- Field 4
    Until: 22:00,            !- Field 5
    1,                       !- Field 6
    Until: 24:00,            !- Field 7
    0;                       !- Field 8

Schedule:Compact,
    Living Occupancy Schedule,  !- Name
    Fraction,                !- Schedule Type Limits Name
    Through: 12/31,          !- Field 1
    For: AllDays,            !- Field 2
    Until: 06:00,            !- Field 3
    0.0,                     !- Field 4
    Until: 07:00,            !- Field 5
    1,                       !- Field 6
    Until: 08:00,            !- Field 7
    0,                       !- Field 8
    Until: 12:00,            !- Field 9
    0,                       !- Field 10
    Until: 13:00,            !- Field 11
    .5,                      !- Field 12
    Until: 17:00,            !- Field 13
    1,                       !- Field 14
    Until: 18:00,            !- Field 15
    1,                       !- Field 16
    Until: 22:00,            !- Field 17
    1,                       !- Field 18
    Until: 24:00,            !- Field 19
    0;                       !- Field 20

Schedule:Compact,
    Infiltration Schedule,   !- Name
    Fraction,                !- Schedule Type Limits Name
    Through: 12/31,          !- Field 1
    For: Weekdays SummerDesignDay,  !- Field 2
    Until: 06:00,            !- Field 3
    1.0,                     !- Field 4
    Until: 22:00,            !- Field 5
    0.0,                     !- Field 6
    Until: 24:00,            !- Field 7
    1.0,                     !- Field 8
    For: Saturday WinterDesignDay,  !- Field 9
    Until: 06:00,            !- Field 10
    1.0,                     !- Field 11
    Until: 18:00,            !- Field 12
    0.0,                     !- Field 13
    Until: 24:00,            !- Field 14
    1.0,                     !- Field 15
    For: Sunday Holidays AllOtherDays,  !- Field 16
    Until: 24:00,            !- Field 17
    1.0;                     !- Field 18

Schedule:Compact,
    Infiltration Half On Schedule,  !- Name
    Fraction,                !- Schedule Type Limits Name
    Through: 12/31,          !- Field 1
    For: Weekdays SummerDesignDay,  !- Field 2
    Until: 06:00,            !- Field 3
    1.0,                     !- Field 4
    Until: 22:00,            !- Field 5
    0.5,                     !- Field 6
    Until: 24:00,            !- Field 7
    1.0,                     !- Field 8
    For: Saturday WinterDesignDay,  !- Field 9
    Until: 06:00,            !- Field 10
    1.0,                     !- Field 11
    Until: 18:00,            !- Field 12
    0.5,                     !- Field 13
    Until: 24:00,            !- Field 14
    1.0,                     !- Field 15
    For: Sunday Holidays AllOtherDays,  !- Field 16
    Until: 24:00,            !- Field 17
    1.0;                     !- Field 18

Schedule:Compact,
    Infiltration Quarter On Schedule,  !- Name
    Fraction,                !- Schedule Type Limits Name
    Through: 12/31,          !- Field 1
    For: Weekdays SummerDesignDay,  !- Field 2
    Until: 06:00,            !- Field 3
    1.0,                     !- Field 4
    Until: 22:00,            !- Field 5
    0.25,                    !- Field 6
    Until: 24:00,            !- Field 7
    1.0,                     !- Field 8
    For: Saturday WinterDesignDay,  !- Field 9
    Until: 06:00,            !- Field 10
    1.0,                     !- Field 11
    Until: 18:00,            !- Field 12
    0.25,                    !- Field 13
    Until: 24:00,            !- Field 14
    1.0,                     !- Field 15
    For: Sunday Holidays AllOtherDays,  !- Field 16
    Until: 24:00,            !- Field 17
    1.0;                     !- Field 18

Schedule:Compact,
    Hours of Operation Schedule,  !- Name
    On/Off,                  !- Schedule Type Limits Name
    Through: 12/31,          !- Field 1
    For: Weekdays SummerDesignDay,  !- Field 2
    Until: 06:00,            !- Field 3
    0.0,                     !- Field 4
    Until: 22:00,            !- Field 5
    1.0,                     !- Field 6
    Until: 24:00,            !- Field 7
    0.0,                     !- Field 8
    For: Saturday WinterDesignDay,  !- Field 9
    Until: 06:00,            !- Field 10
    0.0,                     !- Field 11
    Until: 18:00,            !- Field 12
    1.0,                     !- Field 13
    Until: 24:00,            !- Field 14
    0.0,                     !- Field 15
    For: Sunday Holidays AllOtherDays,  !- Field 16
    Until: 24:00,            !- Field 17
    0.0;                     !- Field 18

Schedule:Compact,
    Always On,               !- Name
    Fraction,                !- Schedule Type Limits Name
    Through: 12/31,          !- Field 1
    For: AllDays,            !- Field 2
    Until: 24:00,            !- Field 3
    1.0;                     !- Field 4

Schedule:Compact,
    Always Off,              !- Name
    Fraction,                !- Schedule Type Limits Name
    Through: 12/31,          !- Field 1
    For: AllDays,            !- Field 2
    Until: 24:00,            !- Field 3
    0.0;                     !- Field 4

Schedule:Compact,
    House Work Eff. Schedule,!- Name
    Fraction,                !- Schedule Type Limits Name
    Through: 12/31,          !- Field 1
    For: AllDays,            !- Field 2
    Until: 24:00,            !- Field 3
    .1;                      !- Field 4

Schedule:Compact,
    Blind_Schedule,          !- Name
    On/Off,                  !- Schedule Type Limits Name
    Through: 12/31,          !- Field 1
    For: AllDays,            !- Field 2
    Until: 24:00,            !- Field 3
    1;                       !- Field 4

Schedule:Compact,
    Comfort_schedule,        !- Name
    Any Number,              !- Schedule Type Limits Name
    Through: 12/31,          !- Field 1
    For: AllDays,            !- Field 2
    Until: 24:00,            !- Field 3
    1;                       !- Field 4

Schedule:Compact,
    AtivSala,                !- Name
    atividade,               !- Schedule Type Limits Name
    Through: 12/31,          !- Field 1
    For:AllDays,             !- Field 2
    Until: 24:00,            !- Field 3
    108;                     !- Field 4

Schedule:Compact,
    AtivDorm,                !- Name
    atividade,               !- Schedule Type Limits Name
    Through: 12/31,          !- Field 1
    For:AllDays,             !- Field 2
    Until: 24:00,            !- Field 3
    81;                      !- Field 4

Schedule:Compact,
    Room_Ventilation_Schedule,  !- Name
    On/Off,                  !- Schedule Type Limits Name
    Through: 12/31,          !- Field 1
    For: AllDays,            !- Field 2
    Until: 7:00,             !- Field 3
    1,                       !- Field 4
    Until: 22:00,            !- Field 5
    0,                       !- Field 6
    Until: 24:00,            !- Field 7
    1;                       !- Field 8

Schedule:Compact,
    sch_ilum_sala,           !- Name
    on_off,                  !- Schedule Type Limits Name
    Through: 12/31,          !- Field 1
    For: AllDays,            !- Field 2
    Until: 16:00,            !- Field 3
    0,                       !- Field 4
    Until: 22:00,            !- Field 5
    1,                       !- Field 6
    Until: 24:00,            !- Field 7
    0;                       !- Field 8

Schedule:Compact,
    sch_ilum_dorm,           !- Name
    on_off,                  !- Schedule Type Limits Name
    Through: 12/31,          !- Field 1
    For: AllDays,            !- Field 2
    Until: 06:00,            !- Field 3
    0,                       !- Field 4
    Until: 08:00,            !- Field 5
    1,                       !- Field 6
    Until: 22:00,            !- Field 7
    0,                       !- Field 8
    Until: 24:00,            !- Field 9
    1;                       !- Field 10

Schedule:Compact,
    sala_Ventilation_Schedule,  !- Name
    On/Off,                  !- Schedule Type Limits Name
    Through: 12/31,          !- Field 1
    For: AllDays,            !- Field 2
    Until: 14:00,            !- Field 3
    0,                       !- Field 4
    Until: 22:00,            !- Field 5
    1,                       !- Field 6
    Until: 24:00,            !- Field 7
    0;                       !- Field 8


!-   ===========  ALL OBJECTS IN CLASS: SCHEDULE:CONSTANT ===========

Schedule:Constant,
    Activity_Level,          !- Name
    People_Activity,         !- Schedule Type Limits Name
    120;                     !- Hourly Value

Schedule:Constant,
    Temp_Vent_Summer,        !- Name
    Temperature,             !- Schedule Type Limits Name
    20;                      !- Hourly Value

Schedule:Constant,
    Temp_Vent_Winter,        !- Name
    Temperature,             !- Schedule Type Limits Name
    24;                      !- Hourly Value

Schedule:Constant,
    HVAC_Sala,               !- Name
    On_Off,                  !- Schedule Type Limits Name
    0;                       !- Hourly Value


!-   ===========  ALL OBJECTS IN CLASS: MATERIAL ===========

Material,
    F08 Metal surface,       !- Name
    Smooth,                  !- Roughness
    0.0008,                  !- Thickness {m}
    45.28,                   !- Conductivity {W/m-K}
    7824,                    !- Density {kg/m3}
    500;                     !- Specific Heat {J/kg-K}

Material,
    I02 50mm insulation board,  !- Name
    MediumRough,             !- Roughness
    0.0508,                  !- Thickness {m}
    0.03,                    !- Conductivity {W/m-K}
    43,                      !- Density {kg/m3}
    1210;                    !- Specific Heat {J/kg-K}

Material,
    G01a 19mm gypsum board,  !- Name
    MediumSmooth,            !- Roughness
    0.019,                   !- Thickness {m}
    0.16,                    !- Conductivity {W/m-K}
    800,                     !- Density {kg/m3}
    1090;                    !- Specific Heat {J/kg-K}

Material,
    M11 100mm lightweight concrete,  !- Name
    MediumRough,             !- Roughness
    0.1016,                  !- Thickness {m}
    0.53,                    !- Conductivity {W/m-K}
    1280,                    !- Density {kg/m3}
    840;                     !- Specific Heat {J/kg-K}

Material,
    M15 200mm heavyweight concrete,  !- Name
    MediumRough,             !- Roughness
    0.2032,                  !- Thickness {m}
    1.95,                    !- Conductivity {W/m-K}
    2240,                    !- Density {kg/m3}
    900;                     !- Specific Heat {J/kg-K}

Material,
    M05 200mm concrete block,!- Name
    MediumRough,             !- Roughness
    0.2032,                  !- Thickness {m}
    1.11,                    !- Conductivity {W/m-K}
    800,                     !- Density {kg/m3}
    920;                     !- Specific Heat {J/kg-K}

Material,
    G05 25mm wood,           !- Name
    MediumSmooth,            !- Roughness
    0.0254,                  !- Thickness {m}
    0.15,                    !- Conductivity {W/m-K}
    608,                     !- Density {kg/m3}
    1630;                    !- Specific Heat {J/kg-K}

Material,
    Piso ceramico,           !- Name
    Rough,                   !- Roughness
    0.0075,                  !- Thickness {m}
    1.05,                    !- Conductivity {W/m-K}
    2000,                    !- Density {kg/m3}
    920,                     !- Specific Heat {J/kg-K}
    0.9,                     !- Thermal Absorptance
    0.7,                     !- Solar Absorptance
    0.7;                     !- Visible Absorptance

Material,
    contrapiso laje 2 cm,    !- Name
    Rough,                   !- Roughness
    0.02,                    !- Thickness {m}
    1.15,                    !- Conductivity {W/m-K}
    2000,                    !- Density {kg/m3}
    1000,                    !- Specific Heat {J/kg-K}
    0.9,                     !- Thermal Absorptance
    0.7,                     !- Solar Absorptance
    0.7;                     !- Visible Absorptance

Material,
    Placa gesso,             !- Name
    Rough,                   !- Roughness
    0.002,                   !- Thickness {m}
    0.35,                    !- Conductivity {W/m-K}
    900,                     !- Density {kg/m3}
    870,                     !- Specific Heat {J/kg-K}
    0.51625,                   !- Thermal Absorptance
    0.51625,                   !- Solar Absorptance
    0.7;                     !- Visible Absorptance

Material,
    gesso interno,           !- Name
    Rough,                   !- Roughness
    0.02,                    !- Thickness {m}
    0.35,                    !- Conductivity {W/m-K}
    900,                     !- Density {kg/m3}
    870,                     !- Specific Heat {J/kg-K}
    0.9,                     !- Thermal Absorptance
    0.7,                     !- Solar Absorptance
    0.7;                     !- Visible Absorptance

Material,
    Madera,                  !- Name
    MediumRough,             !- Roughness
    0.07,                    !- Thickness {m}
    0.15,                    !- Conductivity {W/m-K}
    608,                     !- Density {kg/m3}
    1630,                    !- Specific Heat {J/kg-K}
    0.51625,                   !- Thermal Absorptance
    0.51625,                   !- Solar Absorptance
    0.5;                     !- Visible Absorptance

Material,
    Ceramica tijolo 9x14x24, !- Name
    Rough,                   !- Roughness
    0.0134,                  !- Thickness {m}
    0.9,                     !- Conductivity {W/m-K}
    1600,                    !- Density {kg/m3}
    920,                     !- Specific Heat {J/kg-K}
    0.51625,                   !- Thermal Absorptance
    0.51625,                   !- Solar Absorptance
    0.7;                     !- Visible Absorptance

Material,
    Terra,                   !- Name
    Rough,                   !- Roughness
    0.1,                     !- Thickness {m}
    0.52,                    !- Conductivity {W/m-K}
    1700,                    !- Density {kg/m3}
    1046,                    !- Specific Heat {J/kg-K}
    0.9,                     !- Thermal Absorptance
    0.7,                     !- Solar Absorptance
    0.7;                     !- Visible Absorptance

Material,
    Ceramica tijolo 9x9x24 parede sem revestimento,  !- Name
    Rough,                   !- Roughness
    0.014,                   !- Thickness {m}
    0.9,                     !- Conductivity {W/m-K}
    1600,                    !- Density {kg/m3}
    920,                     !- Specific Heat {J/kg-K}
    0.51625,                   !- Thermal Absorptance
    0.51625,                   !- Solar Absorptance
    0.7;                     !- Visible Absorptance

Material,
    argamassa interna,       !- Name
    Rough,                   !- Roughness
    0.025,                   !- Thickness {m}
    1.15,                    !- Conductivity {W/m-K}
    2000,                    !- Density {kg/m3}
    1000,                    !- Specific Heat {J/kg-K}
    0.9,                     !- Thermal Absorptance
    0.7,                     !- Solar Absorptance
    0.7;                     !- Visible Absorptance

Material,
    Granito,                 !- Name
    Rough,                   !- Roughness
    0.025,                   !- Thickness {m}
    3,                       !- Conductivity {W/m-K}
    2600,                    !- Density {kg/m3}
    800,                     !- Specific Heat {J/kg-K}
    0.51625,                   !- Thermal Absorptance
    0.51625,                   !- Solar Absorptance
    0.7;                     !- Visible Absorptance

Material,
    Ceramica tijolo 9x19x19, !- Name
    Rough,                   !- Roughness
    0.013,                   !- Thickness {m}
    0.9,                     !- Conductivity {W/m-K}
    1600,                    !- Density {kg/m3}
    920,                     !- Specific Heat {J/kg-K}
    0.51625,                   !- Thermal Absorptance
    0.51625,                   !- Solar Absorptance
    0.7;                     !- Visible Absorptance

Material,
    Ceramica tijolo 12x19x19,!- Name
    Rough,                   !- Roughness
    0.013,                   !- Thickness {m}
    0.9,                     !- Conductivity {W/m-K}
    1600,                    !- Density {kg/m3}
    920,                     !- Specific Heat {J/kg-K}
    0.51625,                   !- Thermal Absorptance
    0.51625,                   !- Solar Absorptance
    0.7;                     !- Visible Absorptance

Material,
    Ceramica tijolo 14x19x29,!- Name
    Rough,                   !- Roughness
    0.0165,                  !- Thickness {m}
    0.9,                     !- Conductivity {W/m-K}
    1600,                    !- Density {kg/m3}
    920,                     !- Specific Heat {J/kg-K}
    0.51625,                   !- Thermal Absorptance
    0.51625,                   !- Solar Absorptance
    0.7;                     !- Visible Absorptance

Material,
    Concreto bloco 9x19x39,  !- Name
    Rough,                   !- Roughness
    0.0173,                  !- Thickness {m}
    1.75,                    !- Conductivity {W/m-K}
    2400,                    !- Density {kg/m3}
    1000,                    !- Specific Heat {J/kg-K}
    0.51625,                   !- Thermal Absorptance
    0.51625,                   !- Solar Absorptance
    0.7;                     !- Visible Absorptance

Material,
    Concreto bloco 14x19x39, !- Name
    Rough,                   !- Roughness
    0.03,                    !- Thickness {m}
    1.75,                    !- Conductivity {W/m-K}
    2400,                    !- Density {kg/m3}
    1000,                    !- Specific Heat {J/kg-K}
    0.51625,                   !- Thermal Absorptance