!-Generator IDFEditor 1.44
!-Option SortedOrder

!-NOTE: All comments with '!-' are ignored by the IDFEditor and are generated automatically.
!-      Use '!' comments if they need to be retained when using the IDFEditor.


!-   ===========  ALL OBJECTS IN CLASS: VERSION ===========

Version,
    8.3;                     !- Version Identifier


!-   ===========  ALL OBJECTS IN CLASS: SIMULATIONCONTROL ===========

SimulationControl,
    Yes,                     !- Do Zone Sizing Calculation
    Yes,                     !- Do System Sizing Calculation
    No,                      !- Do Plant Sizing Calculation
    Yes,                     !- Run Simulation for Sizing Periods
    YES;                     !- Run Simulation for Weather File Run Periods


!-   ===========  ALL OBJECTS IN CLASS: BUILDING ===========

Building,
    Mid-Rise Apartment,      !- Name
    0.0,                     !- North Axis {deg}
    City,                    !- Terrain
    0.04,                    !- Loads Convergence Tolerance Value
    0.4,                     !- Temperature Convergence Tolerance Value {deltaC}
    FullExterior,            !- Solar Distribution
    25,                      !- Maximum Number of Warmup Days
    6;                       !- Minimum Number of Warmup Days


!-   ===========  ALL OBJECTS IN CLASS: SURFACECONVECTIONALGORITHM:INSIDE ===========

SurfaceConvectionAlgorithm:Inside,
    TARP;                    !- Algorithm


!-   ===========  ALL OBJECTS IN CLASS: SURFACECONVECTIONALGORITHM:OUTSIDE ===========

SurfaceConvectionAlgorithm:Outside,
    TARP;                    !- Algorithm


!-   ===========  ALL OBJECTS IN CLASS: HEATBALANCEALGORITHM ===========

HeatBalanceAlgorithm,
    ConductionTransferFunction;  !- Algorithm


!-   ===========  ALL OBJECTS IN CLASS: TIMESTEP ===========

Timestep,
    4;                       !- Number of Timesteps per Hour


!-   ===========  ALL OBJECTS IN CLASS: SITE:LOCATION ===========

Site:Location,
    Memphis International Ap_TN_USA Design_Conditions,  !- Name
    35.07,                   !- Latitude {deg}
    -89.98,                  !- Longitude {deg}
    -6.0,                    !- Time Zone {hr}
    81.0;                    !- Elevation {m}


!-   ===========  ALL OBJECTS IN CLASS: SIZINGPERIOD:DESIGNDAY ===========

SizingPeriod:DesignDay,
    Memphis International Ap Ann Htg 99.6% Condns DB,  !- Name
    1,                       !- Month
    21,                      !- Day of Month
    WinterDesignDay,         !- Day Type
    -8.3,                    !- Maximum Dry-Bulb Temperature {C}
    0.0,                     !- Daily Dry-Bulb Temperature Range {deltaC}
    DefaultMultipliers,      !- Dry-Bulb Temperature Range Modifier Type
    ,                        !- Dry-Bulb Temperature Range Modifier Day Schedule Name
    Wetbulb,                 !- Humidity Condition Type
    -8.3,                    !- Wetbulb or DewPoint at Maximum Dry-Bulb {C}
    ,                        !- Humidity Condition Day Schedule Name
    ,                        !- Humidity Ratio at Maximum Dry-Bulb {kgWater/kgDryAir}
    ,                        !- Enthalpy at Maximum Dry-Bulb {J/kg}
    ,                        !- Daily Wet-Bulb Temperature Range {deltaC}
    100356.0,                !- Barometric Pressure {Pa}
    4.1,                     !- Wind Speed {m/s}
    0.0,                     !- Wind Direction {deg}
    No,                      !- Rain Indicator
    No,                      !- Snow Indicator
    No,                      !- Daylight Saving Time Indicator
    ASHRAEClearSky,          !- Solar Model Indicator
    ,                        !- Beam Solar Day Schedule Name
    ,                        !- Diffuse Solar Day Schedule Name
    ,                        !- ASHRAE Clear Sky Optical Depth for Beam Irradiance (taub) {dimensionless}
    ,                        !- ASHRAE Clear Sky Optical Depth for Diffuse Irradiance (taud) {dimensionless}
    0.0;                     !- Sky Clearness

SizingPeriod:DesignDay,
    Memphis International Ap Ann Clg .4% Condns DB=>MWB,  !- Name
    7,                       !- Month
    21,                      !- Day of Month
    SummerDesignDay,         !- Day Type
    35.6,                    !- Maximum Dry-Bulb Temperature {C}
    9.2,                     !- Daily Dry-Bulb Temperature Range {deltaC}
    DefaultMultipliers,      !- Dry-Bulb Temperature Range Modifier Type
    ,                        !- Dry-Bulb Temperature Range Modifier Day Schedule Name
    Wetbulb,                 !- Humidity Condition Type
    25.2,                    !- Wetbulb or DewPoint at Maximum Dry-Bulb {C}
    ,                        !- Humidity Condition Day Schedule Name
    ,                        !- Humidity Ratio at Maximum Dry-Bulb {kgWater/kgDryAir}
    ,                        !- Enthalpy at Maximum Dry-Bulb {J/kg}
    ,                        !- Daily Wet-Bulb Temperature Range {deltaC}
    100356.0,                !- Barometric Pressure {Pa}
    3.8,                     !- Wind Speed {m/s}
    240.0,                   !- Wind Direction {deg}
    No,                      !- Rain Indicator
    No,                      !- Snow Indicator
    No,                      !- Daylight Saving Time Indicator
    ASHRAETau,               !- Solar Model Indicator
    ,                        !- Beam Solar Day Schedule Name
    ,                        !- Diffuse Solar Day Schedule Name
    0.512,                   !- ASHRAE Clear Sky Optical Depth for Beam Irradiance (taub) {dimensionless}
    1.892;                   !- ASHRAE Clear Sky Optical Depth for Diffuse Irradiance (taud) {dimensionless}


!-   ===========  ALL OBJECTS IN CLASS: RUNPERIOD ===========

RunPeriod,
    ,                        !- Name
    1,                       !- Begin Month
    1,                       !- Begin Day of Month
    12,                      !- End Month
    31,                      !- End Day of Month
    Monday,                  !- Day of Week for Start Day
    No,                      !- Use Weather File Holidays and Special Days
    No,                      !- Use Weather File Daylight Saving Period
    Yes,                     !- Apply Weekend Holiday Rule
    Yes,                     !- Use Weather File Rain Indicators
    Yes,                     !- Use Weather File Snow Indicators
    1;                       !- Number of Times Runperiod to be Repeated


!-   ===========  ALL OBJECTS IN CLASS: RUNPERIODCONTROL:SPECIALDAYS ===========

RunPeriodControl:SpecialDays,
    New Year's Day,          !- Name
    Jan 1,                   !- Start Date
    1,                       !- Duration {days}
    Holiday;                 !- Special Day Type

RunPeriodControl:SpecialDays,
    MLK Day,                 !- Name
    3rd Monday in January,   !- Start Date
    1,                       !- Duration {days}
    Holiday;                 !- Special Day Type

RunPeriodControl:SpecialDays,
    Presidents Day,          !- Name
    3rd Monday in February,  !- Start Date
    1,                       !- Duration {days}
    Holiday;                 !- Special Day Type

RunPeriodControl:SpecialDays,
    Memorial Day,            !- Name
    Last Monday in May,      !- Start Date
    1,                       !- Duration {days}
    Holiday;                 !- Special Day Type

RunPeriodControl:SpecialDays,
    Independence Day,        !- Name
    July 4,                  !- Start Date
    1,                       !- Duration {days}
    Holiday;                 !- Special Day Type

RunPeriodControl:SpecialDays,
    Labor day,               !- Name
    1st Monday in September, !- Start Date
    1,                       !- Duration {days}
    Holiday;                 !- Special Day Type

RunPeriodControl:SpecialDays,
    Columbus Day,            !- Name
    2nd Monday in October,   !- Start Date
    1,                       !- Duration {days}
    Holiday;                 !- Special Day Type

RunPeriodControl:SpecialDays,
    Thanksgiving,            !- Name
    4th Thursday in November,!- Start Date
    1,                       !- Duration {days}
    Holiday;                 !- Special Day Type

RunPeriodControl:SpecialDays,
    Veterans Day,            !- Name
    November 11,             !- Start Date
    1,                       !- Duration {days}
    Holiday;                 !- Special Day Type

RunPeriodControl:SpecialDays,
    Christmas,               !- Name
    December 25,             !- Start Date
    1,                       !- Duration {days}
    Holiday;                 !- Special Day Type


!-   ===========  ALL OBJECTS IN CLASS: RUNPERIODCONTROL:DAYLIGHTSAVINGTIME ===========

RunPeriodControl:DaylightSavingTime,
    2nd Sunday in March,     !- Start Date
    1st Sunday in November;  !- End Date


!-   ===========  ALL OBJECTS IN CLASS: SITE:GROUNDTEMPERATURE:BUILDINGSURFACE ===========

Site:GroundTemperature:BuildingSurface,
    20.51,                   !- January Ground Temperature {C}
    20.47,                   !- February Ground Temperature {C}
    20.53,                   !- March Ground Temperature {C}
    20.63,                   !- April Ground Temperature {C}
    20.76,                   !- May Ground Temperature {C}
    23.01,                   !- June Ground Temperature {C}
    23.42,                   !- July Ground Temperature {C}
    23.52,                   !- August Ground Temperature {C}
    23.54,                   !- September Ground Temperature {C}
    21.26,                   !- October Ground Temperature {C}
    20.88,                   !- November Ground Temperature {C}
    20.67;                   !- December Ground Temperature {C}


!-   ===========  ALL OBJECTS IN CLASS: SITE:WATERMAINSTEMPERATURE ===========

Site:WaterMainsTemperature,
    Correlation,             !- Calculation Method
    ,                        !- Temperature Schedule Name
    16.71,                   !- Annual Average Outdoor Air Temperature {C}
    21.83;                   !- Maximum Difference In Monthly Average Outdoor Air Temperatures {deltaC}


!-   ===========  ALL OBJECTS IN CLASS: SCHEDULETYPELIMITS ===========

ScheduleTypeLimits,
    Fraction,                !- Name
    0,                       !- Lower Limit Value
    1,                       !- Upper Limit Value
    Continuous;              !- Numeric Type

ScheduleTypeLimits,
    Temperature,             !- Name
    -100,                    !- Lower Limit Value
    100,                     !- Upper Limit Value
    Continuous;              !- Numeric Type

ScheduleTypeLimits,
    Any Number;              !- Name

ScheduleTypeLimits,
    COMPACT HVAC Any Number; !- Name


!-   ===========  ALL OBJECTS IN CLASS: SCHEDULE:COMPACT ===========

Schedule:Compact,
    OCC_APT_SCH,             !- Name
    Fraction,                !- Schedule Type Limits Name
    Through: 12/31,          !- Field 1
    For: AllDays,            !- Field 2
    Until: 7:00,             !- Field 3
    1.0,                     !- Field 4
    Until: 8:00,             !- Field 5
    0.85,                    !- Field 6
    Until: 9:00,             !- Field 7
    0.39,                    !- Field 8
    Until: 16:00,            !- Field 9
    0.25,                    !- Field 10
    Until: 17:00,            !- Field 11
    0.3,                     !- Field 12
    Until: 18:00,            !- Field 13
    0.52,                    !- Field 14
    Until: 21:00,            !- Field 15
    0.87,                    !- Field 16
    Until: 24:00,            !- Field 17
    1.0;                     !- Field 18

Schedule:Compact,
    OCC_OFF_SCH,             !- Name
    Fraction,                !- Schedule Type Limits Name
    Through: 12/31,          !- Field 1
    For: Weekdays,           !- Field 2
    Until: 8:00,             !- Field 3
    0.0,                     !- Field 4
    Until: 12:00,            !- Field 5
    1.0,                     !- Field 6
    Until: 13:00,            !- Field 7
    0.5,                     !- Field 8
    Until: 17:00,            !- Field 9
    1.0,                     !- Field 10
    Until: 24:00,            !- Field 11
    0.0,                     !- Field 12
    For AllOtherDays,        !- Field 13
    Until: 24:00,            !- Field 14
    0.0;                     !- Field 15

Schedule:Compact,
    LTG_APT_SCH,             !- Name
    Fraction,                !- Schedule Type Limits Name
    Through: 12/31,          !- Field 1
    For: AllDays,            !- Field 2
    Until: 4:00,             !- Field 3
    0.02,                    !- Field 4
    Until: 5:00,             !- Field 5
    0.06,                    !- Field 6
    Until: 6:00,             !- Field 7
    0.13,                    !- Field 8
    Until: 7:00,             !- Field 9
    0.14,                    !- Field 10
    Until: 8:00,             !- Field 11
    0.13,                    !- Field 12
    Until: 9:00,             !- Field 13
    0.06,                    !- Field 14
    Until: 15:00,            !- Field 15
    0.04,                    !- Field 16
    Until: 16:00,            !- Field 17
    0.07,                    !- Field 18
    Until: 17:00,            !- Field 19
    0.14,                    !- Field 20
    Until: 18:00,            !- Field 21
    0.2,                     !- Field 22
    Until: 19:00,            !- Field 23
    0.27,                    !- Field 24
    Until: 21:00,            !- Field 25
    0.32,                    !- Field 26
    Until: 22:00,            !- Field 27
    0.22,                    !- Field 28
    Until: 23:00,            !- Field 29
    0.12,                    !- Field 30
    Until: 24:00,            !- Field 31
    0.05;                    !- Field 32

Schedule:Compact,
    LTG_COR_SCH,             !- Name
    Fraction,                !- Schedule Type Limits Name
    Through: 12/31,          !- Field 1
    For: AllDays,            !- Field 2
    Until: 24:00,            !- Field 3
    0.53144;                 !- Field 4

Schedule:Compact,
    LTG_OFF_SCH,             !- Name
    Fraction,                !- Schedule Type Limits Name
    Through: 12/31,          !- Field 1
    For: SummerDesignDay,    !- Field 2
    Until: 24:00,            !- Field 3
    1,                       !- Field 4
    For: WinterDesignDay,    !- Field 5
    Until: 24:00,            !- Field 6
    0,                       !- Field 7
    For: Weekdays,           !- Field 8
    Until: 8:00,             !- Field 9
    0.18,                    !- Field 10
    Until: 12:00,            !- Field 11
    0.76932,                 !- Field 12
    Until: 13:00,            !- Field 13
    0.68384,                 !- Field 14
    Until: 17:00,            !- Field 15
    0.76932,                 !- Field 16
    Until: 24:00,            !- Field 17
    0.18,                    !- Field 18
    For: AllOtherDays,       !- Field 19
    Until: 24:00,            !- Field 20
    0.18;                    !- Field 21

Schedule:Compact,
    EQP_APT_SCH,             !- Name
    Fraction,                !- Schedule Type Limits Name
    Through: 12/31,          !- Field 1
    For: AllDays,            !- Field 2
    Until: 1:00,             !- Field 3
    0.45,                    !- Field 4
    Until: 2:00,             !- Field 5
    0.41,                    !- Field 6
    Until: 3:00,             !- Field 7
    0.39,                    !- Field 8
    Until: 5:00,             !- Field 9
    0.38,                    !- Field 10
    Until: 6:00,             !- Field 11
    0.43,                    !- Field 12
    Until: 7:00,             !- Field 13
    0.54,                    !- Field 14
    Until: 8:00,             !- Field 15
    0.65,                    !- Field 16
    Until: 9:00,             !- Field 17
    0.66,                    !- Field 18
    Until: 10:00,            !- Field 19
    0.67,                    !- Field 20
    Until: 11:00,            !- Field 21
    0.69,                    !- Field 22
    Until: 12:00,            !- Field 23
    0.70,                    !- Field 24
    Until: 13:00,            !- Field 25
    0.69,                    !- Field 26
    Until: 14:00,            !- Field 27
    0.66,                    !- Field 28
    Until: 15:00,            !- Field 29
    0.65,                    !- Field 30
    Until: 16:00,            !- Field 31
    0.68,                    !- Field 32
    Until: 17:00,            !- Field 33
    0.80,                    !- Field 34
    Until: 19:00,            !- Field 35
    1.0,                     !- Field 36
    Until: 20:00,            !- Field 37
    0.93,                    !- Field 38
    Until: 21:00,            !- Field 39
    0.89,                    !- Field 40
    Until: 22:00,            !- Field 41
    0.85,                    !- Field 42
    Until: 23:00,            !- Field 43
    0.71,                    !- Field 44
    Until: 24:00,            !- Field 45
    0.58;                    !- Field 46

Schedule:Compact,
    EQP_OFF_SCH,             !- Name
    Fraction,                !- Schedule Type Limits Name
    Through: 12/31,          !- Field 1
    For: Weekdays,           !- Field 2
    Until: 7:00,             !- Field 3
    0.218625,                !- Field 4
    Until: 8:00,             !- Field 5
    0.33125,                 !- Field 6
    Until: 12:00,            !- Field 7
    0.92575,                 !- Field 8
    Until: 13:00,            !- Field 9
    0.870205,                !- Field 10
    Until: 17:00,            !- Field 11
    0.92575,                 !- Field 12
    Until: 18:00,            !- Field 13
    0.33125,                 !- Field 14
    Until: 24:00,            !- Field 15
    0.218625,                !- Field 16
    For AllOtherDays,        !- Field 17
    Until: 24:00,            !- Field 18
    0.218625;                !- Field 19

Schedule:Compact,
    INF_APT_SCH,             !- Name
    Fraction,                !- Schedule Type Limits Name
    Through: 12/31,          !- Field 1
    For: AllDays,            !- Field 2
    Until: 24:00,            !- Field 3
    1.0;                     !- Field 4

Schedule:Compact,
    INF_OFF_SCH,             !- Name
    Fraction,                !- Schedule Type Limits Name
    Through: 12/31,          !- Field 1
    For: AllDays,            !- Field 2
    Until: 24:00,            !- Field 3
    1.0;                     !- Field 4

Schedule:Compact,
    INF_COR_SCH,             !- Name
    Fraction,                !- Schedule Type Limits Name
    Through: 12/31,          !- Field 1
    For: AllDays,            !- Field 2
    Until: 24:00,            !- Field 3
    1.0;                     !- Field 4

Schedule:Compact,
    INFIL_Door_Opening_SCH,  !- Name
    fraction,                !- Schedule Type Limits Name
    Through: 12/31,          !- Field 1
    For: AllDays,            !- Field 2
    Until: 06:00,            !- Field 3
    0.0,                     !- Field 4
    Until: 07:00,            !- Field 5
    0.131,                   !- Field 6
    Until: 08:00,            !- Field 7
    1.0,                     !- Field 8
    Until: 17:00,            !- Field 9
    0.131,                   !- Field 10
    Until: 18:00,            !- Field 11
    1.0,                     !- Field 12
    Until: 22:00,            !- Field 13
    0.131,                   !- Field 14
    Until: 24:00,            !- Field 15
    0.0;                     !- Field 16

Schedule:Compact,
    HTGSETP_APT_SCH,         !- Name
    Temperature,             !- Schedule Type Limits Name
    THROUGH: 12/31,          !- Field 1
    FOR:AllDays,             !- Field 2
    UNTIL: 24:00,            !- Field 3
    21.7;                    !- Field 4

Schedule:Compact,
    CLGSETP_APT_SCH,         !- Name
    Temperature,             !- Schedule Type Limits Name
    THROUGH: 12/31,          !- Field 1
    FOR:AllDays,             !- Field 2
    UNTIL: 24:00,            !- Field 3
    24.4;                    !- Field 4

Schedule:Compact,
    HTGSETP_OFF_SCH_NO_OPTIMUM,  !- Name
    Temperature,             !- Schedule Type Limits Name
    THROUGH: 12/31,          !- Field 1
    FOR: WinterDesignDay,    !- Field 2
    UNTIL: 7:00,             !- Field 3
    15.6,                    !- Field 4
    UNTIL: 8:00,             !- Field 5
    18.3,                    !- Field 6
    UNTIL:17:00,             !- Field 7
    21.1,                    !- Field 8
    UNTIL: 18:00,            !- Field 9
    18.3,                    !- Field 10
    UNTIL: 24:00,            !- Field 11
    15.6,                    !- Field 12
    FOR: Weekdays,           !- Field 13
    UNTIL: 7:00,             !- Field 14
    15.6,                    !- Field 15
    UNTIL: 8:00,             !- Field 16
    21.1,                    !- Field 17
    UNTIL:17:00,             !- Field 18
    21.1,                    !- Field 19
    UNTIL: 18:00,            !- Field 20
    18.3,                    !- Field 21
    UNTIL: 24:00,            !- Field 22
    15.6,                    !- Field 23
    FOR: SummerDesignDay AllOtherDays,  !- Field 24
    UNTIL: 24:00,            !- Field 25
    15.6;                    !- Field 26

Schedule:Compact,
    HTGSETP_OFF_SCH_YES_OPTIMUM,  !- Name
    Temperature,             !- Schedule Type Limits Name
    THROUGH: 12/31,          !- Field 1
    FOR: WinterDesignDay,    !- Field 2
    UNTIL: 7:00,             !- Field 3
    15.6,                    !- Field 4
    UNTIL: 8:00,             !- Field 5
    18.3,                    !- Field 6
    UNTIL: 17:00,            !- Field 7
    21.1,                    !- Field 8
    UNTIL: 18:00,            !- Field 9
    18.3,                    !- Field 10
    UNTIL: 24:00,            !- Field 11
    15.6,                    !- Field 12
    FOR: Weekdays,           !- Field 13
    UNTIL: 7:00,             !- Field 14
    15.6,                    !- Field 15
    UNTIL: 8:00,             !- Field 16
    17.8,                    !- Field 17
    UNTIL: 9:00,             !- Field 18
    20.0,                    !- Field 19
    UNTIL: 17:00,            !- Field 20
    21.1,                    !- Field 21
    UNTIL: 18:00,            !- Field 22
    18.3,                    !- Field 23
    UNTIL: 24:00,            !- Field 24
    15.6,                    !- Field 25
    FOR: SummerDesignDay AllOtherDays,  !- Field 26
    UNTIL: 24:00,            !- Field 27
    15.6;                    !- Field 28

Schedule:Compact,
    CLGSETP_OFF_SCH_NO_OPTIMUM,  !- Name
    Temperature,             !- Schedule Type Limits Name
    THROUGH: 12/31,          !- Field 1
    FOR: SummerDesignDay,    !- Field 2
    UNTIL: 7:00,             !- Field 3
    29.4,                    !- Field 4
    UNTIL: 8:00,             !- Field 5
    26.7,                    !- Field 6
    UNTIL:17:00,             !- Field 7
    23.9,                    !- Field 8
    UNTIL: 18:00,            !- Field 9
    26.7,                    !- Field 10
    UNTIL: 24:00,            !- Field 11
    29.4,                    !- Field 12
    FOR:Weekdays,            !- Field 13
    UNTIL: 7:00,             !- Field 14
    29.4,                    !- Field 15
    UNTIL: 8:00,             !- Field 16
    23.9,                    !- Field 17
    UNTIL:17:00,             !- Field 18
    23.9,                    !- Field 19
    UNTIL: 18:00,            !- Field 20
    26.7,                    !- Field 21
    UNTIL: 24:00,            !- Field 22
    29.4,                    !- Field 23
    FOR: WinterDesignDay AllOtherDays,  !- Field 24
    UNTIL: 24:00,            !- Field 25
    29.4;                    !- Field 26

Schedule:Compact,
    CLGSETP_OFF_SCH_YES_OPTIMUM,  !- Name
    Temperature,             !- Schedule Type Limits Name
    THROUGH: 12/31,          !- Field 1
    FOR: SummerDesignDay,    !- Field 2
    UNTIL: 7:00,             !- Field 3
    29.4,                    !- Field 4
    UNTIL: 8:00,             !- Field 5
    26.7,                    !- Field 6
    UNTIL: 17:00,            !- Field 7
    23.9,                    !- Field 8
    UNTIL: 18:00,            !- Field 9
    26.7,                    !- Field 10
    UNTIL: 24:00,            !- Field 11
    29.4,                    !- Field 12
    FOR:Weekdays,            !- Field 13
    UNTIL: 7:00,             !- Field 14
    29.4,                    !- Field 15
    UNTIL: 8:00,             !- Field 16
    27.8,                    !- Field 17
    UNTIL: 9:00,             !- Field 18
    25.6,                    !- Field 19
    UNTIL: 17:00,            !- Field 20
    23.9,                    !- Field 21
    UNTIL: 18:00,            !- Field 22
    26.7,                    !- Field 23
    UNTIL: 24:00,            !- Field 24
    29.4,                    !- Field 25
    FOR: WinterDesignDay AllOtherDays,  !- Field 26
    UNTIL: 24:00,            !- Field 27
    29.4;                    !- Field 28

Schedule:Compact,
    CLGSETP_OFF_SCH_No_Setback,  !- Name
    Temperature,             !- Schedule Type Limits Name
    THROUGH: 12/31,          !- Field 1
    FOR: SummerDesignDay,    !- Field 2
    UNTIL: 7:00,             !- Field 3
    29.4,                    !- Field 4
    UNTIL: 8:00,             !- Field 5
    26.7,                    !- Field 6
    UNTIL: 17:00,            !- Field 7
    23.9,                    !- Field 8
    UNTIL: 18:00,            !- Field 9
    26.7,                    !- Field 10
    UNTIL: 24:00,            !- Field 11
    29.4,                    !- Field 12
    FOR:Weekdays,            !- Field 13
    UNTIL: 7:00,             !- Field 14
    23.9,                    !- Field 15
    UNTIL: 8:00,             !- Field 16
    23.9,                    !- Field 17
    UNTIL:17:00,             !- Field 18
    23.9,                    !- Field 19
    UNTIL: 18:00,            !- Field 20
    23.9,                    !- Field 21
    UNTIL: 24:00,            !- Field 22
    23.9,                    !- Field 23
    FOR: WinterDesignDay AllOtherDays,  !- Field 24
    UNTIL: 24:00,            !- Field 25
    23.9;                    !- Field 26

Schedule:Compact,
    Activity Schedule,       !- Name
    Any Number,              !- Schedule Type Limits Name
    Through: 12/31,          !- Field 1
    For: AllDays,            !- Field 2
    Until: 24:00,            !- Field 3
    95;                      !- Field 4

Schedule:Compact,
    All Off,                 !- Name
    Fraction,                !- Schedule Type Limits Name
    Through: 12/31,          !- Field 1
    For: AllDays,            !- Field 2
    Until: 24:00,            !- Field 3
    0.0;                     !- Field 4

Schedule:Compact,
    All On,                  !- Name
    Fraction,                !- Schedule Type Limits Name
    Through: 12/31,          !- Field 1
    For: AllDays,            !- Field 2
    Until: 24:00,            !- Field 3
    1;                       !- Field 4

Schedule:Compact,
    Exterior_Lgt_ALWAYS_ON,  !- Name
    Fraction,                !- Schedule Type Limits Name
    Through: 12/31,          !- Field 1
    For: AllDays,            !- Field 2
    Until: 24:00,            !- Field 3
    1;                       !- Field 4

Schedule:Compact,
    COMPACT HVAC-ALWAYS 1,   !- Name
    COMPACT HVAC Any Number, !- Schedule Type Limits Name
    Through: 12/31,          !- Field 1
    For: AllDays,            !- Field 2
    Until: 24:00,            !- Field 3
    1;                       !- Field 4

Schedule:Compact,
    COMPACT HVAC-ALWAYS 4,   !- Name
    COMPACT HVAC Any Number, !- Schedule Type Limits Name
    Through: 12/31,          !- Field 1
    For: AllDays,            !- Field 2
    Until: 24:00,            !- Field 3
    4;                       !- Field 4

Schedule:Compact,
    COMPACT HVAC-ALWAYS 0,   !- Name
    COMPACT HVAC Any Number, !- Schedule Type Limits Name
    Through: 12/31,          !- Field 1
    For: AllDays,            !- Field 2
    Until: 24:00,            !- Field 3
    0;                       !- Field 4

Schedule:Compact,
    APT_DHW_SCH,             !- Name
    Fraction,                !- Schedule Type Limits Name
    THROUGH: 12/31,          !- Field 1
    FOR: AllDays,            !- Field 2
    UNTIL: 1:00,             !- Field 3
    0.08,                    !- Field 4
    UNTIL: 2:00,             !- Field 5
    0.04,                    !- Field 6
    UNTIL: 3:00,             !- Field 7
    0.01,                    !- Field 8
    UNTIL: 4:00,             !- Field 9
    0.01,                    !- Field 10
    UNTIL: 5:00,             !- Field 11
    0.04,                    !- Field 12
    UNTIL: 6:00,             !- Field 13
    0.27,                    !- Field 14
    UNTIL: 7:00,             !- Field 15
    0.94,                    !- Field 16
    UNTIL: 8:00,             !- Field 17
    1.00,                    !- Field 18
    UNTIL: 9:00,             !- Field 19
    0.96,                    !- Field 20
    UNTIL: 10:00,            !- Field 21
    0.84,                    !- Field 22
    UNTIL: 11:00,            !- Field 23
    0.76,                    !- Field 24
    UNTIL: 12:00,            !- Field 25
    0.61,                    !- Field 26
    UNTIL: 13:00,            !- Field 27
    0.53,                    !- Field 28
    UNTIL: 14:00,            !- Field 29
    0.47,                    !- Field 30
    UNTIL: 15:00,            !- Field 31
    0.41,                    !- Field 32
    UNTIL: 16:00,            !- Field 33
    0.47,                    !- Field 34
    UNTIL: 17:00,            !- Field 35
    0.55,                    !- Field 36
    UNTIL: 18:00,            !- Field 37
    0.73,                    !- Field 38
    UNTIL: 19:00,            !- Field 39
    0.86,                    !- Field 40
    UNTIL: 20:00,            !- Field 41
    0.82,                    !- Field 42
    UNTIL: 21:00,            !- Field 43
    0.75,                    !- Field 44
    UNTIL: 22:00,            !- Field 45
    0.61,                    !- Field 46